Circuit: * C:\users\gary\Documents\_University\_2022\_Second Semester\E Design\Repo\LTSpice\MotorController\LTSpice4a\Draft1.asc

Direct Newton iteration for .op point succeeded.

Date: Thu Aug 25 18:20:18 2022
Total elapsed time: 0.058 seconds.

tnom = 27
temp = 27
method = modified trap
totiter = 2111
traniter = 2102
tranpoints = 1042
accept = 1042
rejected = 0
matrix size = 9
fillins = 0
solver = Normal
Matrix Compiler1: 260 bytes object code size  0.1/0.1/[0.1]
Matrix Compiler2: 507 bytes object code size  0.1/0.1/[0.1]

