Circuit: * C:\users\gary\Documents\_University\_2022\_Second Semester\E Design\E344\LTSpice\A1\E344_Ass1_CurrSense.asc

Direct Newton iteration for .op point succeeded.

Date: Mon Jul 25 04:11:56 2022
Total elapsed time: 0.365 seconds.

tnom = 27
temp = 27
method = modified trap
totiter = 76884
traniter = 76848
tranpoints = 32108
accept = 22633
rejected = 9475
matrix size = 17
fillins = 12
solver = Normal
Matrix Compiler1: 1.68 KB object code size  0.4/0.2/[0.2]
Matrix Compiler2: off  [0.2]/0.3/0.3

