Circuit: * C:\users\gary\Documents\_University\_2022\_Second Semester\E Design\Repo\LTSpice\ChargingCircuit\E344_UnderVoltageProtection.asc

Direct Newton iteration for .op point succeeded.

Date: Sun Sep 25 20:25:29 2022
Total elapsed time: 0.111 seconds.

tnom = 27
temp = 27
method = modified trap
totiter = 5201
traniter = 5185
tranpoints = 1974
accept = 1694
rejected = 280
matrix size = 27
fillins = 8
solver = Normal
Matrix Compiler1: 1.63 KB object code size  0.5/0.3/[0.2]
Matrix Compiler2: off  [0.2]/0.3/0.3

