Circuit: * C:\users\gary\Documents\_University\_2022\_Second Semester\E Design\Repo\LTSpice\MotorController\LTSpice4b\E344_12345678_A4b.asc

Warning: Multiple definitions of model "2scr375p" Type: BJT
Warning: Multiple definitions of model "bc857b" Type: BJT
Warning: Multiple definitions of model "bc847c" Type: BJT
Warning: Multiple definitions of model "bc847b" Type: BJT
Limiting rise time of source v3 to 0.003
Limiting fall time of source v3 to 0.003
WARNING: Less than two connections to node 5V.  This node is used by RSENSE5V.
Direct Newton iteration for .op point succeeded.

Date: Thu Aug 25 15:02:24 2022
Total elapsed time: 0.220 seconds.

tnom = 27
temp = 27
method = modified trap
totiter = 30328
traniter = 30305
tranpoints = 13908
accept = 9961
rejected = 3947
matrix size = 23
fillins = 2
solver = Normal
Matrix Compiler1: 1.25 KB object code size  0.3/0.2/[0.2]
Matrix Compiler2: off  [0.2]/0.3/0.3

