Circuit: * C:\users\gary\Documents\_University\_2022\_Second Semester\E Design\Repo\LTSpice\DigitalMotorController\E344_12345678_A5.asc

Limiting rise time of source v3 to 0.006
Limiting fall time of source v3 to 0.006
Direct Newton iteration for .op point succeeded.

Date: Sun Sep 18 15:01:12 2022
Total elapsed time: 11.668 seconds.

tnom = 27
temp = 27
method = modified trap
totiter = 725418
traniter = 725394
tranpoints = 309479
accept = 289380
rejected = 20099
matrix size = 34
fillins = 17
solver = Normal
Matrix Compiler1: 2.62 KB object code size  0.7/0.3/[0.3]
Matrix Compiler2: off  [0.3]/0.4/0.4

